
[General]
network = GAIA_Network
sim-time-limit = 100s
